Version 4
SHEET 1 880 680
WIRE -1360 -352 -1360 -384
WIRE -1168 -352 -1360 -352
WIRE -720 -352 -720 -384
WIRE -528 -352 -720 -352
WIRE -1360 -320 -1360 -352
WIRE -720 -320 -720 -352
WIRE -1424 -272 -1456 -272
WIRE -1168 -272 -1168 -352
WIRE -784 -272 -816 -272
WIRE -528 -272 -528 -352
WIRE -1456 -240 -1456 -272
WIRE -816 -240 -816 -272
WIRE -1504 -160 -1520 -160
WIRE -864 -160 -880 -160
WIRE -1456 -128 -1456 -144
WIRE -1360 -128 -1360 -224
WIRE -1360 -128 -1456 -128
WIRE -1168 -128 -1168 -208
WIRE -1168 -128 -1360 -128
WIRE -816 -128 -816 -144
WIRE -720 -128 -720 -224
WIRE -720 -128 -816 -128
WIRE -528 -128 -528 -208
WIRE -528 -128 -720 -128
WIRE 48 -128 -32 -128
WIRE 320 -128 128 -128
WIRE -720 -80 -720 -128
WIRE -1360 -64 -1360 -128
WIRE -1360 -48 -1360 -64
WIRE -1168 -48 -1360 -48
WIRE -720 -48 -720 -80
WIRE -528 -48 -720 -48
WIRE -1360 -16 -1360 -48
WIRE -720 -16 -720 -48
WIRE -1424 32 -1456 32
WIRE -1168 32 -1168 -48
WIRE -784 32 -816 32
WIRE -528 32 -528 -48
WIRE 176 48 176 16
WIRE -1456 64 -1456 32
WIRE -816 64 -816 32
WIRE -1504 144 -1520 144
WIRE -864 144 -880 144
WIRE 176 160 176 128
WIRE 320 160 320 -128
WIRE -1456 176 -1456 160
WIRE -1360 176 -1360 80
WIRE -1360 176 -1456 176
WIRE -1168 176 -1168 96
WIRE -1168 176 -1360 176
WIRE -816 176 -816 160
WIRE -720 176 -720 80
WIRE -720 176 -816 176
WIRE -528 176 -528 96
WIRE -528 176 -720 176
WIRE -1360 224 -1360 176
WIRE -720 224 -720 176
WIRE 320 256 320 240
WIRE 320 256 -32 256
FLAG -1360 224 0
FLAG -1600 144 0
FLAG -1360 -384 +V
FLAG -720 224 0
FLAG -960 144 0
FLAG -720 -384 +V
FLAG -1360 -64 +OUT
FLAG -720 -80 -OUT
FLAG -32 -128 +OUT
FLAG -32 256 -OUT
FLAG -2176 0 +V
FLAG -2176 80 0
FLAG 176 224 0
FLAG 176 -64 0
FLAG -960 -160 -OUT
FLAG -1600 -160 +OUT
SYMBOL res 304 144 R0
SYMATTR InstName R1
SYMATTR Value 0.2
SYMBOL ind 144 -144 R90
WINDOW 0 5 56 VBottom 2
WINDOW 3 32 56 VTop 2
SYMATTR InstName L1
SYMATTR Value 3.5µH
SYMBOL cap 160 160 R0
SYMATTR InstName C1
SYMATTR Value 47µF
SYMBOL voltage -2176 -16 R0
WINDOW 3 24 96 Invisible 2
WINDOW 123 0 0 Left 0
WINDOW 39 24 44 Left 2
SYMATTR Value 48
SYMATTR InstName V1
SYMBOL res 160 32 R0
SYMATTR InstName ESR
SYMATTR Value 2.6e-6
SYMBOL ind 160 -80 R0
SYMATTR InstName ESL
SYMATTR Value 13nH
SYMBOL voltage -1504 144 R90
WINDOW 0 -32 56 VBottom 2
WINDOW 3 67 78 VBottom 2
WINDOW 123 0 0 Left 0
WINDOW 39 0 0 Left 0
SYMATTR InstName V2
SYMATTR Value PWL file=outn.txt
SYMBOL pnp -1424 -224 M180
SYMATTR InstName Q1
SYMATTR Value D45H11
SYMBOL voltage -1504 -160 R90
WINDOW 0 -32 56 VBottom 2
WINDOW 3 65 76 VBottom 2
WINDOW 123 0 0 Left 0
WINDOW 39 0 0 Left 0
SYMATTR InstName V3
SYMATTR Value PWL file=outp.txt
SYMBOL nmos -1504 -240 R0
SYMATTR InstName M1
SYMATTR Value IRF7401
SYMBOL nmos -1504 64 R0
SYMATTR InstName M2
SYMATTR Value IRF7401
SYMBOL pnp -1424 80 M180
SYMATTR InstName Q2
SYMATTR Value D45H11
SYMBOL voltage -864 144 R90
WINDOW 0 -32 56 VBottom 2
WINDOW 3 62 69 VBottom 2
WINDOW 123 0 0 Left 0
WINDOW 39 0 0 Left 0
SYMATTR InstName V4
SYMATTR Value PWL file=outp.txt
SYMBOL pnp -784 -224 M180
SYMATTR InstName Q3
SYMATTR Value D45H11
SYMBOL voltage -864 -160 R90
WINDOW 0 -32 56 VBottom 2
WINDOW 3 60 69 VBottom 2
WINDOW 123 0 0 Left 0
WINDOW 39 0 0 Left 0
SYMATTR InstName V5
SYMATTR Value PWL file=outn.txt
SYMBOL nmos -864 -240 R0
SYMATTR InstName M3
SYMATTR Value IRF7401
SYMBOL nmos -864 64 R0
SYMATTR InstName M4
SYMATTR Value IRF7401
SYMBOL pnp -784 80 M180
SYMATTR InstName Q4
SYMATTR Value D45H11
SYMBOL diode -1152 -208 R180
WINDOW 0 24 64 Left 2
WINDOW 3 24 0 Left 2
SYMATTR InstName D1
SYMATTR Value 1SR154-600
SYMBOL diode -1152 96 R180
WINDOW 0 24 64 Left 2
WINDOW 3 24 0 Left 2
SYMATTR InstName D2
SYMATTR Value 1SR154-600
SYMBOL diode -512 96 R180
WINDOW 0 24 64 Left 2
WINDOW 3 24 0 Left 2
SYMATTR InstName D3
SYMATTR Value 1SR154-600
SYMBOL diode -512 -208 R180
WINDOW 0 24 64 Left 2
WINDOW 3 24 0 Left 2
SYMATTR InstName D4
SYMATTR Value 1SR154-600
TEXT -2248 -208 Left 2 !.tran 0.02
