Version 4
SHEET 1 880 680
WIRE 48 112 -32 112
WIRE 176 112 128 112
WIRE 320 112 176 112
WIRE -32 144 -32 112
WIRE 176 160 176 112
WIRE 320 160 320 112
WIRE -32 256 -32 224
WIRE 176 256 176 224
WIRE 176 256 -32 256
WIRE 320 256 320 240
WIRE 320 256 176 256
WIRE 176 272 176 256
FLAG 176 272 0
SYMBOL res 304 144 R0
SYMATTR InstName R1
SYMATTR Value 0.2
SYMBOL ind 144 96 R90
WINDOW 0 5 56 VBottom 2
WINDOW 3 32 56 VTop 2
SYMATTR InstName L1
SYMATTR Value 50µH
SYMBOL cap 160 160 R0
SYMATTR InstName C1
SYMATTR Value 50µF
SYMBOL voltage -32 128 R0
WINDOW 3 24 96 Invisible 2
WINDOW 123 0 0 Left 0
WINDOW 39 0 0 Left 0
SYMATTR InstName V1
SYMATTR Value PWL file="pwl.txt"
TEXT -66 296 Left 2 !.tran 0.02
